Simulation_Workspace/Phase6/results/v4_line230_3ph/fault_summary.csv
Fault_location,Fault_branch_sensor,Phase,Fault_enabled,Initial_window_start_s,Initial_window_end_exclusive_s,Initial_samples,Pre_event_current_RMS_A,Initial_current_waveform_RMS_A,Initial_peak_abs_current_A,Initial_phase_voltage_waveform_RMS_V,Full_window_fundamental_current_RMS_A,Fundamental_window_start_s,Fundamental_window_end_exclusive_s,Fundamental_samples,Initial_window_status,Fundamental_window_status
LINE230,faultLINE,A,1,0.15,0.17,100,0.000132825202254131,68238.0946494947,114869.545770274,776.085343367728,46485.3455166793,0.171,0.21,39,full_initial_cycle_measured,full_post_fault_DFT_windows_measured
LINE230,faultLINE,B,1,0.15,0.17,100,0.000132825147940033,52336.0431987929,87047.4641350311,16457.7273518154,46106.789668933,0.171,0.21,39,full_initial_cycle_measured,full_post_fault_DFT_windows_measured
LINE230,faultLINE,C,1,0.15,0.17,100,0.000132825155446013,52353.7085273196,92399.7959223167,16088.2425220722,46184.5570028883,0.171,0.21,39,full_initial_cycle_measured,full_post_fault_DFT_windows_measured
